Circuit: * Z:\home\g\Uni code\Electronic Processing and Communications (EEEE2044 UNUK)\EEEE2044 Coursework 1 - Digital Electronics\inc\Q\Q5\Q5.asc

WARNING: Less than two connections to node Z.  This node is used by A3.
Direct Newton iteration for .op point succeeded.

Date: Tue Nov 08 23:05:36 2022
Total elapsed time: 0.054 seconds.

tnom = 27
temp = 27
method = modified trap
totiter = 2977
traniter = 2974
tranpoints = 1488
accept = 1398
rejected = 90
matrix size = 12
fillins = 0
solver = Normal
Matrix Compiler1: 194 bytes object code size  0.2/0.1/[0.1]
Matrix Compiler2: 500 bytes object code size  0.1/0.1/[0.1]

