Circuit: * Z:\home\g\Uni code\Electronic Processing and Communications (EEEE2044 UNUK)\EEEE2044 Coursework 1 - Digital Electronics\inc\Q\Q5\Q5.asc

WARNING: Less than two connections to node Z.  This node is used by A4.
Direct Newton iteration for .op point succeeded.

Date: Mon Nov 07 21:26:57 2022
Total elapsed time: 0.032 seconds.

tnom = 27
temp = 27
method = modified trap
totiter = 5428
traniter = 5425
tranpoints = 2710
accept = 2461
rejected = 249
matrix size = 12
fillins = 0
solver = Normal
Matrix Compiler1: 194 bytes object code size  0.2/0.1/[0.1]
Matrix Compiler2: 500 bytes object code size  0.1/0.9/[0.1]

