Circuit: * Z:\home\g\Uni code\Electronic Processing and Communications (EEEE2044 UNUK)\EEEE2044 Coursework 1 - Digital Electronics\inc\Q\Q19\Q19.asc

X: Removing PWL point (0.000999999,1)
X: Removing PWL point (0.007,0)
X: Removing PWL point (0.01,1)
X: Removing PWL point (0.012,0)
X: Removing PWL point (0.014,1)
X: Removing PWL point (0.019,0)
X: Removing PWL point (0.022,1)
WARNING: Less than two connections to node Z.  This node is used by A8.
Direct Newton iteration for .op point succeeded.

Date: Wed Nov 09 01:02:40 2022
Total elapsed time: 0.073 seconds.

tnom = 27
temp = 27
method = modified trap
totiter = 14300
traniter = 14296
tranpoints = 7149
accept = 6215
rejected = 934
matrix size = 15
fillins = 0
solver = Normal
Matrix Compiler1: 236 bytes object code size  0.2/0.1/[0.1]
Matrix Compiler2: 617 bytes object code size  0.1/0.2/[0.1]

