Circuit: * Z:\home\g\Uni code\Electronic Processing and Communications (EEEE2044 UNUK)\EEEE2044 Coursework 1 - Digital Electronics\inc\Q\Q4\Q4.asc

V1: Missing value, assumed 0V @ DC
Direct Newton iteration for .op point succeeded.

Date: Mon Nov 07 21:08:11 2022
Total elapsed time: 0.069 seconds.

tnom = 27
temp = 27
method = modified trap
totiter = 2085
traniter = 2082
tranpoints = 1042
accept = 1042
rejected = 0
matrix size = 11
fillins = 0
solver = Normal
Matrix Compiler1: 180 bytes object code size  0.2/0.1/[0.1]
Matrix Compiler2: 461 bytes object code size  0.1/0.1/[0.1]

